/*--------------------------------*- C++ -*----------------------------------*\
| =========                 |                                                 |
| \\      /  F ield         | OpenFOAM: The Open Source CFD Toolbox           |
|  \\    /   O peration     | Version:  2106                                  |
|   \\  /    A nd           | Website:  www.openfoam.com                      |
|    \\/     M anipulation  |                                                 |
\*---------------------------------------------------------------------------*/
FoamFile
{
    version     2.0;
    format      ascii;
    arch        "LSB;label=32;scalar=64";
    class       polyBoundaryMesh;
    location    "constant/polyMesh";
    object      boundary;
}
// * * * * * * * * * * * * * * * * * * * * * * * * * * * * * * * * * * * * * //

8
(
    wall
    {
        type            wall;
        inGroups        1(wall);
        nFaces          0;
        startFace       60273;
    }
    inlet
    {
        type            patch;
        nFaces          0;
        startFace       60273;
    }
    outlet
    {
        type            patch;
        nFaces          0;
        startFace       60273;
    }
    open
    {
        type            patch;
        nFaces          35;
        startFace       60273;
    }
    open001
    {
        type            patch;
        nFaces          56;
        startFace       60308;
    }
    emptyWalls
    {
        type            empty;
        inGroups        1(empty);
        nFaces          60474;
        startFace       60364;
    }
    procBoundary0to1
    {
        type            processor;
        inGroups        1(processor);
        nFaces          292;
        startFace       120838;
        matchTolerance  0.0001;
        transform       unknown;
        myProcNo        0;
        neighbProcNo    1;
    }
    procBoundary0to2
    {
        type            processor;
        inGroups        1(processor);
        nFaces          271;
        startFace       121130;
        matchTolerance  0.0001;
        transform       unknown;
        myProcNo        0;
        neighbProcNo    2;
    }
)

// ************************************************************************* //
