/*--------------------------------*- C++ -*----------------------------------*\
| =========                 |                                                 |
| \\      /  F ield         | OpenFOAM: The Open Source CFD Toolbox           |
|  \\    /   O peration     | Version:  2106                                  |
|   \\  /    A nd           | Website:  www.openfoam.com                      |
|    \\/     M anipulation  |                                                 |
\*---------------------------------------------------------------------------*/
FoamFile
{
    version     2.0;
    format      ascii;
    arch        "LSB;label=32;scalar=64";
    class       polyBoundaryMesh;
    location    "constant/polyMesh";
    object      boundary;
}
// * * * * * * * * * * * * * * * * * * * * * * * * * * * * * * * * * * * * * //

7
(
    wall
    {
        type            wall;
        inGroups        1(wall);
        nFaces          0;
        startFace       60477;
    }
    inlet
    {
        type            patch;
        nFaces          0;
        startFace       60477;
    }
    outlet
    {
        type            patch;
        nFaces          231;
        startFace       60477;
    }
    open
    {
        type            patch;
        nFaces          50;
        startFace       60708;
    }
    open001
    {
        type            patch;
        nFaces          32;
        startFace       60758;
    }
    emptyWalls
    {
        type            empty;
        inGroups        1(empty);
        nFaces          60654;
        startFace       60790;
    }
    procBoundary1to0
    {
        type            processor;
        inGroups        1(processor);
        nFaces          292;
        startFace       121444;
        matchTolerance  0.0001;
        transform       unknown;
        myProcNo        1;
        neighbProcNo    0;
    }
)

// ************************************************************************* //
