/*--------------------------------*- C++ -*----------------------------------*\
| =========                 |                                                 |
| \\      /  F ield         | OpenFOAM: The Open Source CFD Toolbox           |
|  \\    /   O peration     | Version:  2012                                  |
|   \\  /    A nd           | Website:  www.openfoam.com                      |
|    \\/     M anipulation  |                                                 |
\*---------------------------------------------------------------------------*/
FoamFile
{
    version     2.0;
    format      ascii;
    class       polyBoundaryMesh;
    location    "constant/polyMesh";
    object      boundary;
}
// * * * * * * * * * * * * * * * * * * * * * * * * * * * * * * * * * * * * * //

10
(
    defaultFaces
    {
        type            empty;
        inGroups        1(empty);
        nFaces          0;
        startFace       20412;
    }
    constraint
    {
        type            empty;
        inGroups        1(empty);
        nFaces          10281;
        startFace       20412;
    }
    constraint001
    {
        type            empty;
        inGroups        1(empty);
        nFaces          10281;
        startFace       30693;
    }
    wall
    {
        type            wall;
        inGroups        1(wall);
        nFaces          0;
        startFace       40974;
    }
    inlet
    {
        type            patch;
        nFaces          0;
        startFace       40974;
    }
    outlet
    {
        type            patch;
        nFaces          0;
        startFace       40974;
    }
    open
    {
        type            patch;
        nFaces          45;
        startFace       40974;
    }
    open001
    {
        type            patch;
        nFaces          40;
        startFace       41019;
    }
    procBoundary1to0
    {
        type            processor;
        inGroups        1(processor);
        nFaces          150;
        startFace       41059;
        matchTolerance  0.0001;
        transform       unknown;
        myProcNo        1;
        neighbProcNo    0;
    }
    procBoundary1to3
    {
        type            processor;
        inGroups        1(processor);
        nFaces          157;
        startFace       41209;
        matchTolerance  0.0001;
        transform       unknown;
        myProcNo        1;
        neighbProcNo    3;
    }
)

// ************************************************************************* //
