/*--------------------------------*- C++ -*----------------------------------*\
| =========                 |                                                 |
| \\      /  F ield         | OpenFOAM: The Open Source CFD Toolbox           |
|  \\    /   O peration     | Version:  4.x                                   |
|   \\  /    A nd           | Web:      www.OpenFOAM.org                      |
|    \\/     M anipulation  |                                                 |
\*---------------------------------------------------------------------------*/
FoamFile
{
    version     4.0;
    format      ascii;
    class       dictionary;
    location    "system";
    object      blockMeshDict;
}
// * * * * * * * * * * * * * * * * * * * * * * * * * * * * * * * * * * * * * //

xMin    -0.005;
xMax    0.20500000000000002;
yMin    -0.005;
yMax    0.105;
zMin    -0.005;
zMax    0.007;
cellsX  210;
cellsY  110;
cellsZ  12;

vertices
(
    ( $xMin  $yMin  $zMin)
    ( $xMax  $yMin  $zMin)
    ( $xMax  $yMax  $zMin)
    ( $xMin  $yMax  $zMin)
    ( $xMin  $yMin  $zMax)
    ( $xMax  $yMin  $zMax)
    ( $xMax  $yMax  $zMax)
    ( $xMin  $yMax  $zMax)
);

blocks
(
    hex (0 1 2 3 4 5 6 7) ($cellsX $cellsY $cellsZ) simpleGrading (1 1 1)
);

edges
(
);

boundary
(
);

// ************************************************************************* //
