/*--------------------------------*- C++ -*----------------------------------*\
| =========                 |                                                 |
| \\      /  F ield         | OpenFOAM: The Open Source CFD Toolbox           |
|  \\    /   O peration     | Version:  2012                                  |
|   \\  /    A nd           | Website:  www.openfoam.com                      |
|    \\/     M anipulation  |                                                 |
\*---------------------------------------------------------------------------*/
FoamFile
{
    version     2.0;
    format      ascii;
    class       dictionary;
    location    "constant/polyMesh";
    object      meshMetaDict;
}
// * * * * * * * * * * * * * * * * * * * * * * * * * * * * * * * * * * * * * //

surfaceFile     "Revolution_Geometry.fms";

surfaceMeta
{
    nPoints         142;
    nFacets         280;
    nPatches        3;
    nFeatureEdges   142;
    patches
    {
        patch_1_0
        {
            type            empty;
            nFacets         142;
        }
        patch_2_0
        {
            type            empty;
            nFacets         69;
        }
        patch_3_0
        {
            type            empty;
            nFacets         69;
        }
    }
    pointSubsets
    {
    }
    facetSubsets
    {
    }
    featureEdgeSubsets
    {
    }
}
