/*--------------------------------*- C++ -*----------------------------------*\
| =========                 |                                                 |
| \\      /  F ield         | OpenFOAM: The Open Source CFD Toolbox           |
|  \\    /   O peration     | Version:  2012                                  |
|   \\  /    A nd           | Website:  www.openfoam.com                      |
|    \\/     M anipulation  |                                                 |
\*---------------------------------------------------------------------------*/
FoamFile
{
    version     2.0;
    format      ascii;
    class       extendedFeatureEdgeMesh;
    location    "constant/extendedFeatureEdgeMesh";
    object      Body_Geometry.extendedFeatureEdgeMesh;
}
// * * * * * * * * * * * * * * * * * * * * * * * * * * * * * * * * * * * * * //

// points

72
(
(0 0 0)
(0 0.100000001490116 0)
(0.200000002980232 0 0)
(0.200000002980232 0.100000001490116 0)
(0 0 0.0020000000949949)
(0 0.100000001490116 0.0020000000949949)
(0.200000002980232 0 0.0020000000949949)
(0.200000002980232 0.100000001490116 0.0020000000949949)
(0.0464644655585289 0.0464644655585289 0)
(0.0472221486270428 0.0458426512777805 0)
(0.0458426512777805 0.0472221486270428 0)
(0.0480865836143494 0.0453806035220623 0)
(0.0453806035220623 0.0480865836143494 0)
(0.0450960732996464 0.049024548381567 0)
(0.049024548381567 0.0450960732996464 0)
(0.0500000007450581 0.0450000017881393 0)
(0.0450000017881393 0.0500000007450581 0)
(0.0509754531085491 0.0450960732996464 0)
(0.0519134178757668 0.0453806035220623 0)
(0.0450960732996464 0.0509754531085491 0)
(0.0453806035220623 0.0519134178757668 0)
(0.0458426512777805 0.0527778528630733 0)
(0.0464644655585289 0.0535355322062969 0)
(0.0472221486270428 0.0541573502123356 0)
(0.0480865836143494 0.0546193979680538 0)
(0.049024548381567 0.0549039281904697 0)
(0.0500000007450581 0.0549999997019768 0)
(0.0509754531085491 0.0549039281904697 0)
(0.0519134178757668 0.0546193979680538 0)
(0.0549039281904697 0.049024548381567 0)
(0.0549999997019768 0.0500000007450581 0)
(0.0546193979680538 0.0480865836143494 0)
(0.0541573502123356 0.0472221486270428 0)
(0.0535355322062969 0.0464644655585289 0)
(0.0527778528630733 0.0458426512777805 0)
(0.0527778528630733 0.0541573502123356 0)
(0.0535355322062969 0.0535355322062969 0)
(0.0541573502123356 0.0527778528630733 0)
(0.0546193979680538 0.0519134178757668 0)
(0.0549039281904697 0.0509754531085491 0)
(0.0472221486270428 0.0458426512777805 0.0020000000949949)
(0.0464644655585289 0.0464644655585289 0.0020000000949949)
(0.0458426512777805 0.0472221486270428 0.0020000000949949)
(0.0480865836143494 0.0453806035220623 0.0020000000949949)
(0.0453806035220623 0.0480865836143494 0.0020000000949949)
(0.0450960732996464 0.049024548381567 0.0020000000949949)
(0.049024548381567 0.0450960732996464 0.0020000000949949)
(0.0500000007450581 0.0450000017881393 0.0020000000949949)
(0.0450000017881393 0.0500000007450581 0.0020000000949949)
(0.0509754531085491 0.0450960732996464 0.0020000000949949)
(0.0519134178757668 0.0453806035220623 0.0020000000949949)
(0.0450960732996464 0.0509754531085491 0.0020000000949949)
(0.0453806035220623 0.0519134178757668 0.0020000000949949)
(0.0458426512777805 0.0527778528630733 0.0020000000949949)
(0.0464644655585289 0.0535355322062969 0.0020000000949949)
(0.0472221486270428 0.0541573502123356 0.0020000000949949)
(0.0480865836143494 0.0546193979680538 0.0020000000949949)
(0.049024548381567 0.0549039281904697 0.0020000000949949)
(0.0500000007450581 0.0549999997019768 0.0020000000949949)
(0.0509754531085491 0.0549039281904697 0.0020000000949949)
(0.0519134178757668 0.0546193979680538 0.0020000000949949)
(0.0549999997019768 0.0500000007450581 0.0020000000949949)
(0.0549039281904697 0.049024548381567 0.0020000000949949)
(0.0546193979680538 0.0480865836143494 0.0020000000949949)
(0.0541573502123356 0.0472221486270428 0.0020000000949949)
(0.0535355322062969 0.0464644655585289 0.0020000000949949)
(0.0527778528630733 0.0458426512777805 0.0020000000949949)
(0.0527778528630733 0.0541573502123356 0.0020000000949949)
(0.0535355322062969 0.0535355322062969 0.0020000000949949)
(0.0541573502123356 0.0527778528630733 0.0020000000949949)
(0.0546193979680538 0.0519134178757668 0.0020000000949949)
(0.0549039281904697 0.0509754531085491 0.0020000000949949)
)

// edges

76
(
(8 9)
(10 8)
(9 11)
(12 10)
(13 12)
(11 14)
(14 15)
(16 13)
(15 17)
(17 18)
(19 16)
(20 19)
(21 20)
(0 1)
(22 21)
(23 22)
(24 23)
(25 24)
(26 25)
(27 26)
(28 27)
(29 30)
(31 29)
(32 31)
(33 32)
(34 33)
(18 34)
(2 0)
(35 28)
(36 35)
(37 36)
(38 37)
(39 38)
(30 39)
(3 2)
(1 3)
(40 41)
(41 42)
(43 40)
(42 44)
(44 45)
(46 43)
(47 46)
(45 48)
(49 47)
(50 49)
(48 51)
(51 52)
(52 53)
(5 4)
(53 54)
(54 55)
(55 56)
(56 57)
(57 58)
(58 59)
(59 60)
(61 62)
(62 63)
(63 64)
(64 65)
(65 66)
(66 50)
(4 6)
(60 67)
(67 68)
(68 69)
(69 70)
(70 71)
(71 61)
(6 7)
(7 5)
(5 1)
(0 4)
(6 2)
(3 7)
)

// concaveStart mixedStart nonFeatureStart
8 8 8
// internalStart flatStart openStart multipleStart
76 76 76 76
// normals

144
(
(0 -0 -1)
(0.634393196528303 0.773010525283195 -0)
(0 0 -1)
(0.773010525283195 0.634393196528303 0)
(0 -0 -1)
(0.47139485515006 0.881922270122517 -0)
(0 0 -1)
(0.881922270122517 0.47139485515006 0)
(0 0 -1)
(0.956939848008353 0.290286285059682 0)
(0 -0 -1)
(0.290286285059682 0.956939848008353 0)
(0 -0 -1)
(0.0980149571176714 0.995184941697382 0)
(0 0 -1)
(0.995184941697382 0.0980149571176714 0)
(0 -0 -1)
(-0.0980149571176714 0.995184941697382 0)
(0 -0 -1)
(-0.290286285059682 0.956939848008353 0)
(0 0 -1)
(0.995184941697382 -0.0980149571176714 0)
(0 0 -1)
(0.956939848008353 -0.290286285059682 0)
(0 0 -1)
(0.881922270122517 -0.47139485515006 0)
(0 0 -1)
(-1 0 0)
(0 0 -1)
(0.773008995686651 -0.634395060342934 0)
(0 0 -1)
(0.634395467580888 -0.773008661473354 0)
(0 0 -1)
(0.47139485515006 -0.881922270122517 0)
(0 0 -1)
(0.290286285059682 -0.956939848008353 0)
(0 0 -1)
(0.0980149571176714 -0.995184941697382 0)
(0 0 -1)
(-0.0980149571176714 -0.995184941697382 0)
(0 0 -1)
(-0.290286285059682 -0.956939848008353 0)
(0 -0 -1)
(-0.995184941697382 0.0980149571176714 0)
(0 -0 -1)
(-0.956939848008353 0.290286285059682 0)
(0 -0 -1)
(-0.881922270122517 0.47139485515006 0)
(0 -0 -1)
(-0.773008661473354 0.634395467580888 0)
(0 -0 -1)
(-0.634395060342934 0.773008995686651 0)
(0 -0 -1)
(-0.47139485515006 0.881922270122517 0)
(0 -0 -1)
(0 -1 0)
(0 0 -1)
(-0.47139485515006 -0.881922270122517 0)
(0 0 -1)
(-0.634397331393204 -0.773007131869546 0)
(0 0 -1)
(-0.773007131869546 -0.634397331393204 0)
(0 0 -1)
(-0.881922270122517 -0.47139485515006 0)
(0 0 -1)
(-0.956939848008353 -0.290286285059682 0)
(0 0 -1)
(-0.995184941697382 -0.0980149571176714 0)
(0 0 -1)
(1 0 0)
(0 0 -1)
(0 1 0)
(0 0 1)
(0.634393196528303 0.773010525283195 -0)
(0 0 1)
(0.773010525283195 0.634393196528303 -0)
(0 0 1)
(0.47139485515006 0.881922270122517 -0)
(0 0 1)
(0.881922270122517 0.47139485515006 -0)
(0 0 1)
(0.956939848008353 0.290286285059682 -0)
(0 0 1)
(0.290286285059682 0.956939848008353 -0)
(0 0 1)
(0.0980149571176714 0.995184941697382 -0)
(0 0 1)
(0.995184941697382 0.0980149571176714 -0)
(0 0 1)
(-0.0980149571176714 0.995184941697382 0)
(0 0 1)
(-0.290286285059682 0.956939848008353 0)
(0 0 1)
(0.995184941697382 -0.0980149571176714 0)
(0 0 1)
(0.956939848008353 -0.290286285059682 0)
(0 0 1)
(0.881922270122517 -0.47139485515006 0)
(0 0 1)
(-1 -0 0)
(0 0 1)
(0.773008995686651 -0.634395060342934 0)
(0 0 1)
(0.634395467580888 -0.773008661473354 0)
(0 0 1)
(0.47139485515006 -0.881922270122517 0)
(0 0 1)
(0.290286285059682 -0.956939848008353 0)
(0 0 1)
(0.0980149571176714 -0.995184941697382 0)
(0 0 1)
(-0.0980149571176714 -0.995184941697382 0)
(0 0 1)
(-0.290286285059682 -0.956939848008353 0)
(0 0 1)
(-0.995184941697382 0.0980149571176714 0)
(0 0 1)
(-0.956939848008353 0.290286285059682 0)
(0 0 1)
(-0.881922270122517 0.47139485515006 0)
(0 0 1)
(-0.773008661473354 0.634395467580888 0)
(0 0 1)
(-0.634395060342934 0.773008995686651 0)
(0 0 1)
(-0.47139485515006 0.881922270122517 0)
(0 0 1)
(0 -1 0)
(0 0 1)
(-0.47139485515006 -0.881922270122517 0)
(0 0 1)
(-0.634397331393204 -0.773007131869546 0)
(0 0 1)
(-0.773007131869546 -0.634397331393204 0)
(0 0 1)
(-0.881922270122517 -0.47139485515006 0)
(0 0 1)
(-0.956939848008353 -0.290286285059682 0)
(0 0 1)
(-0.995184941697382 -0.0980149571176714 0)
(0 0 1)
(1 -0 0)
(0 0 1)
(0 1 -0)
)

// normal volume types

144
(
0
0
0
0
0
0
0
0
0
0
0
0
0
0
0
0
0
0
0
0
0
0
0
0
0
0
0
0
0
0
0
0
0
0
0
0
0
0
0
0
0
0
0
0
0
0
0
0
0
0
0
0
0
0
0
0
0
0
0
0
0
0
0
0
0
0
0
0
0
0
0
0
0
0
0
0
0
0
0
0
0
0
0
0
0
0
0
0
0
0
0
0
0
0
0
0
0
0
0
0
0
0
0
0
0
0
0
0
0
0
0
0
0
0
0
0
0
0
0
0
0
0
0
0
0
0
0
0
0
0
0
0
0
0
0
0
0
0
0
0
0
0
0
0
)

// normalDirections

76
(
2(1 -1)
2(1 -1)
2(1 -1)
2(1 -1)
2(1 -1)
2(1 -1)
2(1 -1)
2(1 -1)
2(1 -1)
2(1 -1)
2(1 -1)
2(1 -1)
2(1 -1)
2(1 -1)
2(1 -1)
2(1 -1)
2(1 -1)
2(1 -1)
2(1 -1)
2(1 -1)
2(1 -1)
2(1 -1)
2(1 -1)
2(1 -1)
2(1 -1)
2(1 -1)
2(1 -1)
2(1 -1)
2(1 -1)
2(1 -1)
2(1 -1)
2(1 -1)
2(1 -1)
2(1 -1)
2(1 -1)
2(1 -1)
2(1 -1)
2(1 -1)
2(1 -1)
2(1 -1)
2(1 -1)
2(1 -1)
2(1 -1)
2(1 -1)
2(1 -1)
2(1 -1)
2(1 -1)
2(1 -1)
2(1 -1)
2(1 -1)
2(1 -1)
2(1 -1)
2(1 -1)
2(1 -1)
2(1 -1)
2(1 -1)
2(1 -1)
2(1 -1)
2(1 -1)
2(1 -1)
2(1 -1)
2(1 -1)
2(1 -1)
2(1 -1)
2(1 -1)
2(1 -1)
2(1 -1)
2(1 -1)
2(1 -1)
2(1 -1)
2(1 -1)
2(1 -1)
2(1 -1)
2(1 -1)
2(1 -1)
2(1 -1)
)

// edgeNormals

76
(
2(0 1)
2(2 3)
2(4 5)
2(6 7)
2(8 9)
2(10 11)
2(12 13)
2(14 15)
2(16 17)
2(18 19)
2(20 21)
2(22 23)
2(24 25)
2(26 27)
2(28 29)
2(30 31)
2(32 33)
2(34 35)
2(36 37)
2(38 39)
2(40 41)
2(42 43)
2(44 45)
2(46 47)
2(48 49)
2(50 51)
2(52 53)
2(54 55)
2(56 57)
2(58 59)
2(60 61)
2(62 63)
2(64 65)
2(66 67)
2(68 69)
2(70 71)
2(72 73)
2(74 75)
2(76 77)
2(78 79)
2(80 81)
2(82 83)
2(84 85)
2(86 87)
2(88 89)
2(90 91)
2(92 93)
2(94 95)
2(96 97)
2(98 99)
2(100 101)
2(102 103)
2(104 105)
2(106 107)
2(108 109)
2(110 111)
2(112 113)
2(114 115)
2(116 117)
2(118 119)
2(120 121)
2(122 123)
2(124 125)
2(126 127)
2(128 129)
2(130 131)
2(132 133)
2(134 135)
2(136 137)
2(138 139)
2(140 141)
2(142 143)
2(27 71)
2(99 127)
2(69 55)
2(141 143)
)

// featurePointNormals

8
(
3(26 27 55)
3(26 27 71)
3(54 55 69)
3(68 69 71)
3(98 99 127)
3(98 99 143)
3(126 127 141)
3(140 141 143)
)

// featurePointEdges

8
(
3(13 73 27)
3(35 72 13)
3(27 74 34)
3(34 75 35)
3(49 73 63)
3(71 72 49)
3(63 74 70)
3(70 75 71)
)

// regionEdges

76
(
0
1
2
3
4
5
6
7
8
9
10
11
12
13
14
15
16
17
18
19
20
21
22
23
24
25
26
27
28
29
30
31
32
33
34
35
36
37
38
39
40
41
42
43
44
45
46
47
48
49
50
51
52
53
54
55
56
57
58
59
60
61
62
63
64
65
66
67
68
69
70
71
72
73
74
75
)



// ************************************************************************* //
