/*--------------------------------*- C++ -*----------------------------------*\
| =========                 |                                                 |
| \\      /  F ield         | OpenFOAM: The Open Source CFD Toolbox           |
|  \\    /   O peration     | Version:  2012                                  |
|   \\  /    A nd           | Website:  www.openfoam.com                      |
|    \\/     M anipulation  |                                                 |
\*---------------------------------------------------------------------------*/
FoamFile
{
    version     2.0;
    format      ascii;
    class       polyBoundaryMesh;
    location    "constant/polyMesh";
    object      boundary;
}
// * * * * * * * * * * * * * * * * * * * * * * * * * * * * * * * * * * * * * //

9
(
    defaultFaces
    {
        type            empty;
        inGroups        1(empty);
        nFaces          0;
        startFace       20326;
    }
    constraint
    {
        type            empty;
        inGroups        1(empty);
        nFaces          10250;
        startFace       20326;
    }
    constraint001
    {
        type            empty;
        inGroups        1(empty);
        nFaces          10250;
        startFace       30576;
    }
    wall
    {
        type            wall;
        inGroups        1(wall);
        nFaces          80;
        startFace       40826;
    }
    inlet
    {
        type            patch;
        nFaces          100;
        startFace       40906;
    }
    outlet
    {
        type            patch;
        nFaces          0;
        startFace       41006;
    }
    open
    {
        type            patch;
        nFaces          69;
        startFace       41006;
    }
    open001
    {
        type            patch;
        nFaces          63;
        startFace       41075;
    }
    procBoundary0to1
    {
        type            processor;
        inGroups        1(processor);
        nFaces          150;
        startFace       41138;
        matchTolerance  0.0001;
        transform       unknown;
        myProcNo        0;
        neighbProcNo    1;
    }
)

// ************************************************************************* //
