/*--------------------------------*- C++ -*----------------------------------*\
| =========                 |                                                 |
| \\      /  F ield         | OpenFOAM: The Open Source CFD Toolbox           |
|  \\    /   O peration     | Version:  2012                                  |
|   \\  /    A nd           | Website:  www.openfoam.com                      |
|    \\/     M anipulation  |                                                 |
\*---------------------------------------------------------------------------*/
FoamFile
{
    version     2.0;
    format      ascii;
    class       polyBoundaryMesh;
    location    "constant/polyMesh";
    object      boundary;
}
// * * * * * * * * * * * * * * * * * * * * * * * * * * * * * * * * * * * * * //

6
(
    wall
    {
        type            wall;
        inGroups        1(wall);
        nFaces          2160;
        startFace       29358;
    }
    inlet
    {
        type            patch;
        nFaces          0;
        startFace       31518;
    }
    outlet
    {
        type            patch;
        nFaces          0;
        startFace       31518;
    }
    defaultFaces
    {
        type            patch;
        nFaces          0;
        startFace       31518;
    }
    procBoundary0to1
    {
        type            processor;
        inGroups        1(processor);
        nFaces          342;
        startFace       31518;
        matchTolerance  0.0001;
        transform       unknown;
        myProcNo        0;
        neighbProcNo    1;
    }
    procBoundary0to3
    {
        type            processor;
        inGroups        1(processor);
        nFaces          342;
        startFace       31860;
        matchTolerance  0.0001;
        transform       unknown;
        myProcNo        0;
        neighbProcNo    3;
    }
)

// ************************************************************************* //
