/*--------------------------------*- C++ -*----------------------------------*\
| =========                 |                                                 |
| \\      /  F ield         | OpenFOAM: The Open Source CFD Toolbox           |
|  \\    /   O peration     | Version:  2012                                  |
|   \\  /    A nd           | Website:  www.openfoam.com                      |
|    \\/     M anipulation  |                                                 |
\*---------------------------------------------------------------------------*/
FoamFile
{
    version     2.0;
    format      ascii;
    class       featureEdgeMesh;
    location    "constant/triSurface";
    object      Body_Geometry.eMesh;
}
// * * * * * * * * * * * * * * * * * * * * * * * * * * * * * * * * * * * * * //


// points:

72
(
(0 0 0)
(0 0.100000001490116 0)
(0.200000002980232 0 0)
(0.200000002980232 0.100000001490116 0)
(0 0 0.0020000000949949)
(0 0.100000001490116 0.0020000000949949)
(0.200000002980232 0 0.0020000000949949)
(0.200000002980232 0.100000001490116 0.0020000000949949)
(0.0464644655585289 0.0464644655585289 0)
(0.0472221486270428 0.0458426512777805 0)
(0.0458426512777805 0.0472221486270428 0)
(0.0480865836143494 0.0453806035220623 0)
(0.0453806035220623 0.0480865836143494 0)
(0.0450960732996464 0.049024548381567 0)
(0.049024548381567 0.0450960732996464 0)
(0.0500000007450581 0.0450000017881393 0)
(0.0450000017881393 0.0500000007450581 0)
(0.0509754531085491 0.0450960732996464 0)
(0.0519134178757668 0.0453806035220623 0)
(0.0450960732996464 0.0509754531085491 0)
(0.0453806035220623 0.0519134178757668 0)
(0.0458426512777805 0.0527778528630733 0)
(0.0464644655585289 0.0535355322062969 0)
(0.0472221486270428 0.0541573502123356 0)
(0.0480865836143494 0.0546193979680538 0)
(0.049024548381567 0.0549039281904697 0)
(0.0500000007450581 0.0549999997019768 0)
(0.0509754531085491 0.0549039281904697 0)
(0.0519134178757668 0.0546193979680538 0)
(0.0549039281904697 0.049024548381567 0)
(0.0549999997019768 0.0500000007450581 0)
(0.0546193979680538 0.0480865836143494 0)
(0.0541573502123356 0.0472221486270428 0)
(0.0535355322062969 0.0464644655585289 0)
(0.0527778528630733 0.0458426512777805 0)
(0.0527778528630733 0.0541573502123356 0)
(0.0535355322062969 0.0535355322062969 0)
(0.0541573502123356 0.0527778528630733 0)
(0.0546193979680538 0.0519134178757668 0)
(0.0549039281904697 0.0509754531085491 0)
(0.0472221486270428 0.0458426512777805 0.0020000000949949)
(0.0464644655585289 0.0464644655585289 0.0020000000949949)
(0.0458426512777805 0.0472221486270428 0.0020000000949949)
(0.0480865836143494 0.0453806035220623 0.0020000000949949)
(0.0453806035220623 0.0480865836143494 0.0020000000949949)
(0.0450960732996464 0.049024548381567 0.0020000000949949)
(0.049024548381567 0.0450960732996464 0.0020000000949949)
(0.0500000007450581 0.0450000017881393 0.0020000000949949)
(0.0450000017881393 0.0500000007450581 0.0020000000949949)
(0.0509754531085491 0.0450960732996464 0.0020000000949949)
(0.0519134178757668 0.0453806035220623 0.0020000000949949)
(0.0450960732996464 0.0509754531085491 0.0020000000949949)
(0.0453806035220623 0.0519134178757668 0.0020000000949949)
(0.0458426512777805 0.0527778528630733 0.0020000000949949)
(0.0464644655585289 0.0535355322062969 0.0020000000949949)
(0.0472221486270428 0.0541573502123356 0.0020000000949949)
(0.0480865836143494 0.0546193979680538 0.0020000000949949)
(0.049024548381567 0.0549039281904697 0.0020000000949949)
(0.0500000007450581 0.0549999997019768 0.0020000000949949)
(0.0509754531085491 0.0549039281904697 0.0020000000949949)
(0.0519134178757668 0.0546193979680538 0.0020000000949949)
(0.0549999997019768 0.0500000007450581 0.0020000000949949)
(0.0549039281904697 0.049024548381567 0.0020000000949949)
(0.0546193979680538 0.0480865836143494 0.0020000000949949)
(0.0541573502123356 0.0472221486270428 0.0020000000949949)
(0.0535355322062969 0.0464644655585289 0.0020000000949949)
(0.0527778528630733 0.0458426512777805 0.0020000000949949)
(0.0527778528630733 0.0541573502123356 0.0020000000949949)
(0.0535355322062969 0.0535355322062969 0.0020000000949949)
(0.0541573502123356 0.0527778528630733 0.0020000000949949)
(0.0546193979680538 0.0519134178757668 0.0020000000949949)
(0.0549039281904697 0.0509754531085491 0.0020000000949949)
)


// edges:

76
(
(8 9)
(10 8)
(9 11)
(12 10)
(13 12)
(11 14)
(14 15)
(16 13)
(15 17)
(17 18)
(19 16)
(20 19)
(21 20)
(0 1)
(22 21)
(23 22)
(24 23)
(25 24)
(26 25)
(27 26)
(28 27)
(29 30)
(31 29)
(32 31)
(33 32)
(34 33)
(18 34)
(2 0)
(35 28)
(36 35)
(37 36)
(38 37)
(39 38)
(30 39)
(3 2)
(1 3)
(40 41)
(41 42)
(43 40)
(42 44)
(44 45)
(46 43)
(47 46)
(45 48)
(49 47)
(50 49)
(48 51)
(51 52)
(52 53)
(5 4)
(53 54)
(54 55)
(55 56)
(56 57)
(57 58)
(58 59)
(59 60)
(61 62)
(62 63)
(63 64)
(64 65)
(65 66)
(66 50)
(4 6)
(60 67)
(67 68)
(68 69)
(69 70)
(70 71)
(71 61)
(6 7)
(7 5)
(5 1)
(0 4)
(6 2)
(3 7)
)

// * * * * * * * * * * * * * * * * * * * * * * * * * * * * * * * * * * * * * //


// ************************************************************************* //
